version 3
run Ver_Degeneracy_Test1-3-20250206-17:06:45-4776
attr configname Ver_Degeneracy_Test1
attr datetime 20250206-17:06:45
attr datetimef 20250206-170645
attr experiment Ver_Degeneracy_Test1
attr inifile omnetpp.ini
attr iterationvars ""
attr iterationvarsd ""
attr iterationvarsf ""
attr measurement ""
attr network VehicularSensingNetwork
attr processid 4776
attr repetition 3
attr replication #3
attr resultdir results
attr runnumber 3
attr seedset 3
config image-path ../../inet4.5/images
config extends Verify_Degeneracy
config *.numCars 1
config sim-time-limit 6000s
config repeat 5
config *.numCars 10
config *.car[*].customSensing.alphaValue 0.01
config *.car[*].customSensing.communicationRange 150m
config description "Wireless Vehicular Sensing Project"
config network VehicularSensingNetwork
config num-rngs 3
config seed-set 3
config *.car[*].rng-0 0
config *.car[*].customSensing.rng-0 1
config *.car[*].customMobility.rng-0 2
config *.car[*].minSpeed 5mps
config *.car[*].maxSpeed 20mps
config *.car[*].minCoordValue 0m
config *.car[*].maxCoordValue 500m
config *.car[*].customMobility.typename inet.mobility.single.RandomWaypointMobility
config *.car[*].customMobility.minInitDistance 10m
config *.mobilityVisualizer.displayTrajectory true
config *.car[*].customMobility.displayPosition true

par VehicularSensingNetwork.car[0].customMobility typename "\"pecsn_project_tess.MobilityModule\""
par VehicularSensingNetwork.car[0].customMobility subjectModule "\"^\""
par VehicularSensingNetwork.car[0].customMobility coordinateSystemModule "\"\""
par VehicularSensingNetwork.car[0].customMobility displayStringTextFormat "\"p: %p\\nv: %v\""
attr mutable ""
par VehicularSensingNetwork.car[0].customMobility updateDisplayString true
par VehicularSensingNetwork.car[0].customMobility constraintAreaMinX 0m
attr unit m
par VehicularSensingNetwork.car[0].customMobility constraintAreaMinY 0m
attr unit m
par VehicularSensingNetwork.car[0].customMobility constraintAreaMinZ 0m
attr unit m
par VehicularSensingNetwork.car[0].customMobility constraintAreaMaxX 500m
attr unit m
par VehicularSensingNetwork.car[0].customMobility constraintAreaMaxY 500m
attr unit m
par VehicularSensingNetwork.car[0].customMobility constraintAreaMaxZ 0m
attr unit m
par VehicularSensingNetwork.car[0].customMobility updateInterval 0.1s
attr unit s
par VehicularSensingNetwork.car[0].customMobility faceForward true
par VehicularSensingNetwork.car[0].customMobility initialX 90.1348m
attr unit m
par VehicularSensingNetwork.car[0].customMobility initialY 34.1534m
attr unit m
par VehicularSensingNetwork.car[0].customMobility initialZ 0m
attr unit m
par VehicularSensingNetwork.car[0].customMobility initFromDisplayString true
par VehicularSensingNetwork.car[0].customMobility speed "uniform(parent.minSpeed, parent.maxSpeed)"
attr unit mps
par VehicularSensingNetwork.car[0].customMobility waitTime 0s
attr unit s
par VehicularSensingNetwork.car[0].customMobility totalCars 1
par VehicularSensingNetwork.car[0].customMobility minInitDistance 10m
attr unit m
par VehicularSensingNetwork.car[0].customSensing typename "\"pecsn_project_tess.SensingModule\""
par VehicularSensingNetwork.car[0].customSensing carID 0
par VehicularSensingNetwork.car[0].customSensing totalCars 1
par VehicularSensingNetwork.car[0].customSensing communicationRange 150m
attr unit m
par VehicularSensingNetwork.car[0].customSensing alphaValue 0.01
par VehicularSensingNetwork.car[0].customSensing sensingInterval 1s
attr unit s
par VehicularSensingNetwork.car[0].customSensing outputFile "\"vehicles_sensed\""
par VehicularSensingNetwork.car[0] typename "\"pecsn_project_tess.Car\""
par VehicularSensingNetwork.car[0] carIndex 0
par VehicularSensingNetwork.car[0] allCars 1
par VehicularSensingNetwork.car[0] minCoordValue 0m
attr unit m
par VehicularSensingNetwork.car[0] maxCoordValue 500m
attr unit m
par VehicularSensingNetwork.car[0] minSpeed 5mps
attr unit mps
par VehicularSensingNetwork.car[0] maxSpeed 20mps
attr unit mps
par VehicularSensingNetwork.mobilityVisualizer.canvasVisualizer typename "\"inet.visualizer.canvas.mobility.MobilityCanvasVisualizer\""
par VehicularSensingNetwork.mobilityVisualizer.canvasVisualizer visualizationTargetModule "\"^.^\""
par VehicularSensingNetwork.mobilityVisualizer.canvasVisualizer visualizationSubjectModule "\"^.^\""
par VehicularSensingNetwork.mobilityVisualizer.canvasVisualizer tags "\"\""
par VehicularSensingNetwork.mobilityVisualizer.canvasVisualizer networkNodeVisualizerModule "\"^.networkNodeVisualizer\""
par VehicularSensingNetwork.mobilityVisualizer.canvasVisualizer displayMobility true
par VehicularSensingNetwork.mobilityVisualizer.canvasVisualizer animationSpeed 0
par VehicularSensingNetwork.mobilityVisualizer.canvasVisualizer moduleFilter "\"**.mobility\""
attr mutable ""
par VehicularSensingNetwork.mobilityVisualizer.canvasVisualizer displayPositions false
par VehicularSensingNetwork.mobilityVisualizer.canvasVisualizer positionCircleRadius 4
par VehicularSensingNetwork.mobilityVisualizer.canvasVisualizer positionCircleLineWidth 1
par VehicularSensingNetwork.mobilityVisualizer.canvasVisualizer positionCircleLineColor "\"dark\""
par VehicularSensingNetwork.mobilityVisualizer.canvasVisualizer positionCircleFillColor "\"dark\""
par VehicularSensingNetwork.mobilityVisualizer.canvasVisualizer displayOrientations false
par VehicularSensingNetwork.mobilityVisualizer.canvasVisualizer orientationPieRadius 32
par VehicularSensingNetwork.mobilityVisualizer.canvasVisualizer orientationPieSize 0.2
par VehicularSensingNetwork.mobilityVisualizer.canvasVisualizer orientationPieOpacity 0.25
par VehicularSensingNetwork.mobilityVisualizer.canvasVisualizer orientationLineColor "\"black\""
par VehicularSensingNetwork.mobilityVisualizer.canvasVisualizer orientationLineStyle "\"solid\""
par VehicularSensingNetwork.mobilityVisualizer.canvasVisualizer orientationLineWidth 1
par VehicularSensingNetwork.mobilityVisualizer.canvasVisualizer orientationFillColor "\"blue\""
par VehicularSensingNetwork.mobilityVisualizer.canvasVisualizer displayVelocities false
par VehicularSensingNetwork.mobilityVisualizer.canvasVisualizer velocityArrowScale 1
par VehicularSensingNetwork.mobilityVisualizer.canvasVisualizer velocityLineColor "\"black\""
par VehicularSensingNetwork.mobilityVisualizer.canvasVisualizer velocityLineStyle "\"solid\""
par VehicularSensingNetwork.mobilityVisualizer.canvasVisualizer velocityLineWidth 1
par VehicularSensingNetwork.mobilityVisualizer.canvasVisualizer displayMovementTrails false
par VehicularSensingNetwork.mobilityVisualizer.canvasVisualizer movementTrailLineColor "\"dark\""
par VehicularSensingNetwork.mobilityVisualizer.canvasVisualizer movementTrailLineStyle "\"solid\""
par VehicularSensingNetwork.mobilityVisualizer.canvasVisualizer movementTrailLineWidth 1
par VehicularSensingNetwork.mobilityVisualizer.canvasVisualizer trailLength 100
par VehicularSensingNetwork.mobilityVisualizer.canvasVisualizer zIndex 0
par VehicularSensingNetwork.mobilityVisualizer typename "\"inet.visualizer.common.MobilityVisualizer\""
par VehicularSensingNetwork typename "\"pecsn_project_tess.simulations.VehicularSensingNetwork\""
par VehicularSensingNetwork numCars 1

