version 3
run Ver_Continuity_Test1-9-20250206-10:08:44-9000
attr configname Ver_Continuity_Test1
attr datetime 20250206-10:08:44
attr datetimef 20250206-100844
attr experiment Ver_Continuity_Test1
attr inifile omnetpp.ini
attr iterationvars ""
attr iterationvarsd ""
attr iterationvarsf ""
attr measurement ""
attr network VehicularSensingNetwork
attr processid 9000
attr repetition 9
attr replication #9
attr resultdir results
attr runnumber 9
attr seedset 9
config image-path ../../inet4.5/images
config extends Verify_Continuity
config *.numCars 20
config sim-time-limit 2000s
config repeat 10
config *.car[*].customSensing.alphaValue 0.01
config *.car[*].customSensing.communicationRange 200m
config description "Wireless Vehicular Sensing Project"
config network VehicularSensingNetwork
config num-rngs 3
config seed-set 9
config *.car[*].rng-0 0
config *.car[*].customSensing.rng-0 1
config *.car[*].customMobility.rng-0 2
config *.car[*].minSpeed 5mps
config *.car[*].maxSpeed 20mps
config *.car[*].minCoordValue 0m
config *.car[*].maxCoordValue 500m
config *.car[*].customMobility.typename inet.mobility.single.RandomWaypointMobility
config *.car[*].customMobility.minInitDistance 10m
config *.mobilityVisualizer.displayTrajectory true
config *.car[*].customMobility.displayPosition true

par VehicularSensingNetwork.car[0].customMobility typename "\"pecsn_project_tess.MobilityModule\""
par VehicularSensingNetwork.car[0].customMobility subjectModule "\"^\""
par VehicularSensingNetwork.car[0].customMobility coordinateSystemModule "\"\""
par VehicularSensingNetwork.car[0].customMobility displayStringTextFormat "\"p: %p\\nv: %v\""
attr mutable ""
par VehicularSensingNetwork.car[0].customMobility updateDisplayString true
par VehicularSensingNetwork.car[0].customMobility constraintAreaMinX 0m
attr unit m
par VehicularSensingNetwork.car[0].customMobility constraintAreaMinY 0m
attr unit m
par VehicularSensingNetwork.car[0].customMobility constraintAreaMinZ 0m
attr unit m
par VehicularSensingNetwork.car[0].customMobility constraintAreaMaxX 500m
attr unit m
par VehicularSensingNetwork.car[0].customMobility constraintAreaMaxY 500m
attr unit m
par VehicularSensingNetwork.car[0].customMobility constraintAreaMaxZ 0m
attr unit m
par VehicularSensingNetwork.car[0].customMobility updateInterval 0.1s
attr unit s
par VehicularSensingNetwork.car[0].customMobility faceForward true
par VehicularSensingNetwork.car[0].customMobility initialX 431.88m
attr unit m
par VehicularSensingNetwork.car[0].customMobility initialY 400.265m
attr unit m
par VehicularSensingNetwork.car[0].customMobility initialZ 0m
attr unit m
par VehicularSensingNetwork.car[0].customMobility initFromDisplayString true
par VehicularSensingNetwork.car[0].customMobility speed "uniform(parent.minSpeed, parent.maxSpeed)"
attr unit mps
par VehicularSensingNetwork.car[0].customMobility waitTime 0s
attr unit s
par VehicularSensingNetwork.car[0].customMobility totalCars 20
par VehicularSensingNetwork.car[0].customMobility minInitDistance 10m
attr unit m
par VehicularSensingNetwork.car[0].customSensing typename "\"pecsn_project_tess.SensingModule\""
par VehicularSensingNetwork.car[0].customSensing carID 0
par VehicularSensingNetwork.car[0].customSensing totalCars 20
par VehicularSensingNetwork.car[0].customSensing communicationRange 200m
attr unit m
par VehicularSensingNetwork.car[0].customSensing alphaValue 0.01
par VehicularSensingNetwork.car[0].customSensing sensingInterval 1s
attr unit s
par VehicularSensingNetwork.car[0].customSensing outputFile "\"vehicles_sensed\""
par VehicularSensingNetwork.car[0] typename "\"pecsn_project_tess.Car\""
par VehicularSensingNetwork.car[0] carIndex 0
par VehicularSensingNetwork.car[0] allCars 20
par VehicularSensingNetwork.car[0] minCoordValue 0m
attr unit m
par VehicularSensingNetwork.car[0] maxCoordValue 500m
attr unit m
par VehicularSensingNetwork.car[0] minSpeed 5mps
attr unit mps
par VehicularSensingNetwork.car[0] maxSpeed 20mps
attr unit mps
par VehicularSensingNetwork.car[1].customMobility typename "\"pecsn_project_tess.MobilityModule\""
par VehicularSensingNetwork.car[1].customMobility subjectModule "\"^\""
par VehicularSensingNetwork.car[1].customMobility coordinateSystemModule "\"\""
par VehicularSensingNetwork.car[1].customMobility displayStringTextFormat "\"p: %p\\nv: %v\""
attr mutable ""
par VehicularSensingNetwork.car[1].customMobility updateDisplayString true
par VehicularSensingNetwork.car[1].customMobility constraintAreaMinX 0m
attr unit m
par VehicularSensingNetwork.car[1].customMobility constraintAreaMinY 0m
attr unit m
par VehicularSensingNetwork.car[1].customMobility constraintAreaMinZ 0m
attr unit m
par VehicularSensingNetwork.car[1].customMobility constraintAreaMaxX 500m
attr unit m
par VehicularSensingNetwork.car[1].customMobility constraintAreaMaxY 500m
attr unit m
par VehicularSensingNetwork.car[1].customMobility constraintAreaMaxZ 0m
attr unit m
par VehicularSensingNetwork.car[1].customMobility updateInterval 0.1s
attr unit s
par VehicularSensingNetwork.car[1].customMobility faceForward true
par VehicularSensingNetwork.car[1].customMobility initialX 142.453m
attr unit m
par VehicularSensingNetwork.car[1].customMobility initialY 173.25m
attr unit m
par VehicularSensingNetwork.car[1].customMobility initialZ 0m
attr unit m
par VehicularSensingNetwork.car[1].customMobility initFromDisplayString true
par VehicularSensingNetwork.car[1].customMobility speed "uniform(parent.minSpeed, parent.maxSpeed)"
attr unit mps
par VehicularSensingNetwork.car[1].customMobility waitTime 0s
attr unit s
par VehicularSensingNetwork.car[1].customMobility totalCars 20
par VehicularSensingNetwork.car[1].customMobility minInitDistance 10m
attr unit m
par VehicularSensingNetwork.car[1].customSensing typename "\"pecsn_project_tess.SensingModule\""
par VehicularSensingNetwork.car[1].customSensing carID 1
par VehicularSensingNetwork.car[1].customSensing totalCars 20
par VehicularSensingNetwork.car[1].customSensing communicationRange 200m
attr unit m
par VehicularSensingNetwork.car[1].customSensing alphaValue 0.01
par VehicularSensingNetwork.car[1].customSensing sensingInterval 1s
attr unit s
par VehicularSensingNetwork.car[1].customSensing outputFile "\"vehicles_sensed\""
par VehicularSensingNetwork.car[1] typename "\"pecsn_project_tess.Car\""
par VehicularSensingNetwork.car[1] carIndex 1
par VehicularSensingNetwork.car[1] allCars 20
par VehicularSensingNetwork.car[1] minCoordValue 0m
attr unit m
par VehicularSensingNetwork.car[1] maxCoordValue 500m
attr unit m
par VehicularSensingNetwork.car[1] minSpeed 5mps
attr unit mps
par VehicularSensingNetwork.car[1] maxSpeed 20mps
attr unit mps
par VehicularSensingNetwork.car[2].customMobility typename "\"pecsn_project_tess.MobilityModule\""
par VehicularSensingNetwork.car[2].customMobility subjectModule "\"^\""
par VehicularSensingNetwork.car[2].customMobility coordinateSystemModule "\"\""
par VehicularSensingNetwork.car[2].customMobility displayStringTextFormat "\"p: %p\\nv: %v\""
attr mutable ""
par VehicularSensingNetwork.car[2].customMobility updateDisplayString true
par VehicularSensingNetwork.car[2].customMobility constraintAreaMinX 0m
attr unit m
par VehicularSensingNetwork.car[2].customMobility constraintAreaMinY 0m
attr unit m
par VehicularSensingNetwork.car[2].customMobility constraintAreaMinZ 0m
attr unit m
par VehicularSensingNetwork.car[2].customMobility constraintAreaMaxX 500m
attr unit m
par VehicularSensingNetwork.car[2].customMobility constraintAreaMaxY 500m
attr unit m
par VehicularSensingNetwork.car[2].customMobility constraintAreaMaxZ 0m
attr unit m
par VehicularSensingNetwork.car[2].customMobility updateInterval 0.1s
attr unit s
par VehicularSensingNetwork.car[2].customMobility faceForward true
par VehicularSensingNetwork.car[2].customMobility initialX 36.6282m
attr unit m
par VehicularSensingNetwork.car[2].customMobility initialY 485.043m
attr unit m
par VehicularSensingNetwork.car[2].customMobility initialZ 0m
attr unit m
par VehicularSensingNetwork.car[2].customMobility initFromDisplayString true
par VehicularSensingNetwork.car[2].customMobility speed "uniform(parent.minSpeed, parent.maxSpeed)"
attr unit mps
par VehicularSensingNetwork.car[2].customMobility waitTime 0s
attr unit s
par VehicularSensingNetwork.car[2].customMobility totalCars 20
par VehicularSensingNetwork.car[2].customMobility minInitDistance 10m
attr unit m
par VehicularSensingNetwork.car[2].customSensing typename "\"pecsn_project_tess.SensingModule\""
par VehicularSensingNetwork.car[2].customSensing carID 2
par VehicularSensingNetwork.car[2].customSensing totalCars 20
par VehicularSensingNetwork.car[2].customSensing communicationRange 200m
attr unit m
par VehicularSensingNetwork.car[2].customSensing alphaValue 0.01
par VehicularSensingNetwork.car[2].customSensing sensingInterval 1s
attr unit s
par VehicularSensingNetwork.car[2].customSensing outputFile "\"vehicles_sensed\""
par VehicularSensingNetwork.car[2] typename "\"pecsn_project_tess.Car\""
par VehicularSensingNetwork.car[2] carIndex 2
par VehicularSensingNetwork.car[2] allCars 20
par VehicularSensingNetwork.car[2] minCoordValue 0m
attr unit m
par VehicularSensingNetwork.car[2] maxCoordValue 500m
attr unit m
par VehicularSensingNetwork.car[2] minSpeed 5mps
attr unit mps
par VehicularSensingNetwork.car[2] maxSpeed 20mps
attr unit mps
par VehicularSensingNetwork.car[3].customMobility typename "\"pecsn_project_tess.MobilityModule\""
par VehicularSensingNetwork.car[3].customMobility subjectModule "\"^\""
par VehicularSensingNetwork.car[3].customMobility coordinateSystemModule "\"\""
par VehicularSensingNetwork.car[3].customMobility displayStringTextFormat "\"p: %p\\nv: %v\""
attr mutable ""
par VehicularSensingNetwork.car[3].customMobility updateDisplayString true
par VehicularSensingNetwork.car[3].customMobility constraintAreaMinX 0m
attr unit m
par VehicularSensingNetwork.car[3].customMobility constraintAreaMinY 0m
attr unit m
par VehicularSensingNetwork.car[3].customMobility constraintAreaMinZ 0m
attr unit m
par VehicularSensingNetwork.car[3].customMobility constraintAreaMaxX 500m
attr unit m
par VehicularSensingNetwork.car[3].customMobility constraintAreaMaxY 500m
attr unit m
par VehicularSensingNetwork.car[3].customMobility constraintAreaMaxZ 0m
attr unit m
par VehicularSensingNetwork.car[3].customMobility updateInterval 0.1s
attr unit s
par VehicularSensingNetwork.car[3].customMobility faceForward true
par VehicularSensingNetwork.car[3].customMobility initialX 381.619m
attr unit m
par VehicularSensingNetwork.car[3].customMobility initialY 245.141m
attr unit m
par VehicularSensingNetwork.car[3].customMobility initialZ 0m
attr unit m
par VehicularSensingNetwork.car[3].customMobility initFromDisplayString true
par VehicularSensingNetwork.car[3].customMobility speed "uniform(parent.minSpeed, parent.maxSpeed)"
attr unit mps
par VehicularSensingNetwork.car[3].customMobility waitTime 0s
attr unit s
par VehicularSensingNetwork.car[3].customMobility totalCars 20
par VehicularSensingNetwork.car[3].customMobility minInitDistance 10m
attr unit m
par VehicularSensingNetwork.car[3].customSensing typename "\"pecsn_project_tess.SensingModule\""
par VehicularSensingNetwork.car[3].customSensing carID 3
par VehicularSensingNetwork.car[3].customSensing totalCars 20
par VehicularSensingNetwork.car[3].customSensing communicationRange 200m
attr unit m
par VehicularSensingNetwork.car[3].customSensing alphaValue 0.01
par VehicularSensingNetwork.car[3].customSensing sensingInterval 1s
attr unit s
par VehicularSensingNetwork.car[3].customSensing outputFile "\"vehicles_sensed\""
par VehicularSensingNetwork.car[3] typename "\"pecsn_project_tess.Car\""
par VehicularSensingNetwork.car[3] carIndex 3
par VehicularSensingNetwork.car[3] allCars 20
par VehicularSensingNetwork.car[3] minCoordValue 0m
attr unit m
par VehicularSensingNetwork.car[3] maxCoordValue 500m
attr unit m
par VehicularSensingNetwork.car[3] minSpeed 5mps
attr unit mps
par VehicularSensingNetwork.car[3] maxSpeed 20mps
attr unit mps
par VehicularSensingNetwork.car[4].customMobility typename "\"pecsn_project_tess.MobilityModule\""
par VehicularSensingNetwork.car[4].customMobility subjectModule "\"^\""
par VehicularSensingNetwork.car[4].customMobility coordinateSystemModule "\"\""
par VehicularSensingNetwork.car[4].customMobility displayStringTextFormat "\"p: %p\\nv: %v\""
attr mutable ""
par VehicularSensingNetwork.car[4].customMobility updateDisplayString true
par VehicularSensingNetwork.car[4].customMobility constraintAreaMinX 0m
attr unit m
par VehicularSensingNetwork.car[4].customMobility constraintAreaMinY 0m
attr unit m
par VehicularSensingNetwork.car[4].customMobility constraintAreaMinZ 0m
attr unit m
par VehicularSensingNetwork.car[4].customMobility constraintAreaMaxX 500m
attr unit m
par VehicularSensingNetwork.car[4].customMobility constraintAreaMaxY 500m
attr unit m
par VehicularSensingNetwork.car[4].customMobility constraintAreaMaxZ 0m
attr unit m
par VehicularSensingNetwork.car[4].customMobility updateInterval 0.1s
attr unit s
par VehicularSensingNetwork.car[4].customMobility faceForward true
par VehicularSensingNetwork.car[4].customMobility initialX 226.36m
attr unit m
par VehicularSensingNetwork.car[4].customMobility initialY 166.647m
attr unit m
par VehicularSensingNetwork.car[4].customMobility initialZ 0m
attr unit m
par VehicularSensingNetwork.car[4].customMobility initFromDisplayString true
par VehicularSensingNetwork.car[4].customMobility speed "uniform(parent.minSpeed, parent.maxSpeed)"
attr unit mps
par VehicularSensingNetwork.car[4].customMobility waitTime 0s
attr unit s
par VehicularSensingNetwork.car[4].customMobility totalCars 20
par VehicularSensingNetwork.car[4].customMobility minInitDistance 10m
attr unit m
par VehicularSensingNetwork.car[4].customSensing typename "\"pecsn_project_tess.SensingModule\""
par VehicularSensingNetwork.car[4].customSensing carID 4
par VehicularSensingNetwork.car[4].customSensing totalCars 20
par VehicularSensingNetwork.car[4].customSensing communicationRange 200m
attr unit m
par VehicularSensingNetwork.car[4].customSensing alphaValue 0.01
par VehicularSensingNetwork.car[4].customSensing sensingInterval 1s
attr unit s
par VehicularSensingNetwork.car[4].customSensing outputFile "\"vehicles_sensed\""
par VehicularSensingNetwork.car[4] typename "\"pecsn_project_tess.Car\""
par VehicularSensingNetwork.car[4] carIndex 4
par VehicularSensingNetwork.car[4] allCars 20
par VehicularSensingNetwork.car[4] minCoordValue 0m
attr unit m
par VehicularSensingNetwork.car[4] maxCoordValue 500m
attr unit m
par VehicularSensingNetwork.car[4] minSpeed 5mps
attr unit mps
par VehicularSensingNetwork.car[4] maxSpeed 20mps
attr unit mps
par VehicularSensingNetwork.car[5].customMobility typename "\"pecsn_project_tess.MobilityModule\""
par VehicularSensingNetwork.car[5].customMobility subjectModule "\"^\""
par VehicularSensingNetwork.car[5].customMobility coordinateSystemModule "\"\""
par VehicularSensingNetwork.car[5].customMobility displayStringTextFormat "\"p: %p\\nv: %v\""
attr mutable ""
par VehicularSensingNetwork.car[5].customMobility updateDisplayString true
par VehicularSensingNetwork.car[5].customMobility constraintAreaMinX 0m
attr unit m
par VehicularSensingNetwork.car[5].customMobility constraintAreaMinY 0m
attr unit m
par VehicularSensingNetwork.car[5].customMobility constraintAreaMinZ 0m
attr unit m
par VehicularSensingNetwork.car[5].customMobility constraintAreaMaxX 500m
attr unit m
par VehicularSensingNetwork.car[5].customMobility constraintAreaMaxY 500m
attr unit m
par VehicularSensingNetwork.car[5].customMobility constraintAreaMaxZ 0m
attr unit m
par VehicularSensingNetwork.car[5].customMobility updateInterval 0.1s
attr unit s
par VehicularSensingNetwork.car[5].customMobility faceForward true
par VehicularSensingNetwork.car[5].customMobility initialX 271.148m
attr unit m
par VehicularSensingNetwork.car[5].customMobility initialY 165.48m
attr unit m
par VehicularSensingNetwork.car[5].customMobility initialZ 0m
attr unit m
par VehicularSensingNetwork.car[5].customMobility initFromDisplayString true
par VehicularSensingNetwork.car[5].customMobility speed "uniform(parent.minSpeed, parent.maxSpeed)"
attr unit mps
par VehicularSensingNetwork.car[5].customMobility waitTime 0s
attr unit s
par VehicularSensingNetwork.car[5].customMobility totalCars 20
par VehicularSensingNetwork.car[5].customMobility minInitDistance 10m
attr unit m
par VehicularSensingNetwork.car[5].customSensing typename "\"pecsn_project_tess.SensingModule\""
par VehicularSensingNetwork.car[5].customSensing carID 5
par VehicularSensingNetwork.car[5].customSensing totalCars 20
par VehicularSensingNetwork.car[5].customSensing communicationRange 200m
attr unit m
par VehicularSensingNetwork.car[5].customSensing alphaValue 0.01
par VehicularSensingNetwork.car[5].customSensing sensingInterval 1s
attr unit s
par VehicularSensingNetwork.car[5].customSensing outputFile "\"vehicles_sensed\""
par VehicularSensingNetwork.car[5] typename "\"pecsn_project_tess.Car\""
par VehicularSensingNetwork.car[5] carIndex 5
par VehicularSensingNetwork.car[5] allCars 20
par VehicularSensingNetwork.car[5] minCoordValue 0m
attr unit m
par VehicularSensingNetwork.car[5] maxCoordValue 500m
attr unit m
par VehicularSensingNetwork.car[5] minSpeed 5mps
attr unit mps
par VehicularSensingNetwork.car[5] maxSpeed 20mps
attr unit mps
par VehicularSensingNetwork.car[6].customMobility typename "\"pecsn_project_tess.MobilityModule\""
par VehicularSensingNetwork.car[6].customMobility subjectModule "\"^\""
par VehicularSensingNetwork.car[6].customMobility coordinateSystemModule "\"\""
par VehicularSensingNetwork.car[6].customMobility displayStringTextFormat "\"p: %p\\nv: %v\""
attr mutable ""
par VehicularSensingNetwork.car[6].customMobility updateDisplayString true
par VehicularSensingNetwork.car[6].customMobility constraintAreaMinX 0m
attr unit m
par VehicularSensingNetwork.car[6].customMobility constraintAreaMinY 0m
attr unit m
par VehicularSensingNetwork.car[6].customMobility constraintAreaMinZ 0m
attr unit m
par VehicularSensingNetwork.car[6].customMobility constraintAreaMaxX 500m
attr unit m
par VehicularSensingNetwork.car[6].customMobility constraintAreaMaxY 500m
attr unit m
par VehicularSensingNetwork.car[6].customMobility constraintAreaMaxZ 0m
attr unit m
par VehicularSensingNetwork.car[6].customMobility updateInterval 0.1s
attr unit s
par VehicularSensingNetwork.car[6].customMobility faceForward true
par VehicularSensingNetwork.car[6].customMobility initialX 363.318m
attr unit m
par VehicularSensingNetwork.car[6].customMobility initialY 427.305m
attr unit m
par VehicularSensingNetwork.car[6].customMobility initialZ 0m
attr unit m
par VehicularSensingNetwork.car[6].customMobility initFromDisplayString true
par VehicularSensingNetwork.car[6].customMobility speed "uniform(parent.minSpeed, parent.maxSpeed)"
attr unit mps
par VehicularSensingNetwork.car[6].customMobility waitTime 0s
attr unit s
par VehicularSensingNetwork.car[6].customMobility totalCars 20
par VehicularSensingNetwork.car[6].customMobility minInitDistance 10m
attr unit m
par VehicularSensingNetwork.car[6].customSensing typename "\"pecsn_project_tess.SensingModule\""
par VehicularSensingNetwork.car[6].customSensing carID 6
par VehicularSensingNetwork.car[6].customSensing totalCars 20
par VehicularSensingNetwork.car[6].customSensing communicationRange 200m
attr unit m
par VehicularSensingNetwork.car[6].customSensing alphaValue 0.01
par VehicularSensingNetwork.car[6].customSensing sensingInterval 1s
attr unit s
par VehicularSensingNetwork.car[6].customSensing outputFile "\"vehicles_sensed\""
par VehicularSensingNetwork.car[6] typename "\"pecsn_project_tess.Car\""
par VehicularSensingNetwork.car[6] carIndex 6
par VehicularSensingNetwork.car[6] allCars 20
par VehicularSensingNetwork.car[6] minCoordValue 0m
attr unit m
par VehicularSensingNetwork.car[6] maxCoordValue 500m
attr unit m
par VehicularSensingNetwork.car[6] minSpeed 5mps
attr unit mps
par VehicularSensingNetwork.car[6] maxSpeed 20mps
attr unit mps
par VehicularSensingNetwork.car[7].customMobility typename "\"pecsn_project_tess.MobilityModule\""
par VehicularSensingNetwork.car[7].customMobility subjectModule "\"^\""
par VehicularSensingNetwork.car[7].customMobility coordinateSystemModule "\"\""
par VehicularSensingNetwork.car[7].customMobility displayStringTextFormat "\"p: %p\\nv: %v\""
attr mutable ""
par VehicularSensingNetwork.car[7].customMobility updateDisplayString true
par VehicularSensingNetwork.car[7].customMobility constraintAreaMinX 0m
attr unit m
par VehicularSensingNetwork.car[7].customMobility constraintAreaMinY 0m
attr unit m
par VehicularSensingNetwork.car[7].customMobility constraintAreaMinZ 0m
attr unit m
par VehicularSensingNetwork.car[7].customMobility constraintAreaMaxX 500m
attr unit m
par VehicularSensingNetwork.car[7].customMobility constraintAreaMaxY 500m
attr unit m
par VehicularSensingNetwork.car[7].customMobility constraintAreaMaxZ 0m
attr unit m
par VehicularSensingNetwork.car[7].customMobility updateInterval 0.1s
attr unit s
par VehicularSensingNetwork.car[7].customMobility faceForward true
par VehicularSensingNetwork.car[7].customMobility initialX 424.453m
attr unit m
par VehicularSensingNetwork.car[7].customMobility initialY 415.828m
attr unit m
par VehicularSensingNetwork.car[7].customMobility initialZ 0m
attr unit m
par VehicularSensingNetwork.car[7].customMobility initFromDisplayString true
par VehicularSensingNetwork.car[7].customMobility speed "uniform(parent.minSpeed, parent.maxSpeed)"
attr unit mps
par VehicularSensingNetwork.car[7].customMobility waitTime 0s
attr unit s
par VehicularSensingNetwork.car[7].customMobility totalCars 20
par VehicularSensingNetwork.car[7].customMobility minInitDistance 10m
attr unit m
par VehicularSensingNetwork.car[7].customSensing typename "\"pecsn_project_tess.SensingModule\""
par VehicularSensingNetwork.car[7].customSensing carID 7
par VehicularSensingNetwork.car[7].customSensing totalCars 20
par VehicularSensingNetwork.car[7].customSensing communicationRange 200m
attr unit m
par VehicularSensingNetwork.car[7].customSensing alphaValue 0.01
par VehicularSensingNetwork.car[7].customSensing sensingInterval 1s
attr unit s
par VehicularSensingNetwork.car[7].customSensing outputFile "\"vehicles_sensed\""
par VehicularSensingNetwork.car[7] typename "\"pecsn_project_tess.Car\""
par VehicularSensingNetwork.car[7] carIndex 7
par VehicularSensingNetwork.car[7] allCars 20
par VehicularSensingNetwork.car[7] minCoordValue 0m
attr unit m
par VehicularSensingNetwork.car[7] maxCoordValue 500m
attr unit m
par VehicularSensingNetwork.car[7] minSpeed 5mps
attr unit mps
par VehicularSensingNetwork.car[7] maxSpeed 20mps
attr unit mps
par VehicularSensingNetwork.car[8].customMobility typename "\"pecsn_project_tess.MobilityModule\""
par VehicularSensingNetwork.car[8].customMobility subjectModule "\"^\""
par VehicularSensingNetwork.car[8].customMobility coordinateSystemModule "\"\""
par VehicularSensingNetwork.car[8].customMobility displayStringTextFormat "\"p: %p\\nv: %v\""
attr mutable ""
par VehicularSensingNetwork.car[8].customMobility updateDisplayString true
par VehicularSensingNetwork.car[8].customMobility constraintAreaMinX 0m
attr unit m
par VehicularSensingNetwork.car[8].customMobility constraintAreaMinY 0m
attr unit m
par VehicularSensingNetwork.car[8].customMobility constraintAreaMinZ 0m
attr unit m
par VehicularSensingNetwork.car[8].customMobility constraintAreaMaxX 500m
attr unit m
par VehicularSensingNetwork.car[8].customMobility constraintAreaMaxY 500m
attr unit m
par VehicularSensingNetwork.car[8].customMobility constraintAreaMaxZ 0m
attr unit m
par VehicularSensingNetwork.car[8].customMobility updateInterval 0.1s
attr unit s
par VehicularSensingNetwork.car[8].customMobility faceForward true
par VehicularSensingNetwork.car[8].customMobility initialX 384.1m
attr unit m
par VehicularSensingNetwork.car[8].customMobility initialY 335.586m
attr unit m
par VehicularSensingNetwork.car[8].customMobility initialZ 0m
attr unit m
par VehicularSensingNetwork.car[8].customMobility initFromDisplayString true
par VehicularSensingNetwork.car[8].customMobility speed "uniform(parent.minSpeed, parent.maxSpeed)"
attr unit mps
par VehicularSensingNetwork.car[8].customMobility waitTime 0s
attr unit s
par VehicularSensingNetwork.car[8].customMobility totalCars 20
par VehicularSensingNetwork.car[8].customMobility minInitDistance 10m
attr unit m
par VehicularSensingNetwork.car[8].customSensing typename "\"pecsn_project_tess.SensingModule\""
par VehicularSensingNetwork.car[8].customSensing carID 8
par VehicularSensingNetwork.car[8].customSensing totalCars 20
par VehicularSensingNetwork.car[8].customSensing communicationRange 200m
attr unit m
par VehicularSensingNetwork.car[8].customSensing alphaValue 0.01
par VehicularSensingNetwork.car[8].customSensing sensingInterval 1s
attr unit s
par VehicularSensingNetwork.car[8].customSensing outputFile "\"vehicles_sensed\""
par VehicularSensingNetwork.car[8] typename "\"pecsn_project_tess.Car\""
par VehicularSensingNetwork.car[8] carIndex 8
par VehicularSensingNetwork.car[8] allCars 20
par VehicularSensingNetwork.car[8] minCoordValue 0m
attr unit m
par VehicularSensingNetwork.car[8] maxCoordValue 500m
attr unit m
par VehicularSensingNetwork.car[8] minSpeed 5mps
attr unit mps
par VehicularSensingNetwork.car[8] maxSpeed 20mps
attr unit mps
par VehicularSensingNetwork.car[9].customMobility typename "\"pecsn_project_tess.MobilityModule\""
par VehicularSensingNetwork.car[9].customMobility subjectModule "\"^\""
par VehicularSensingNetwork.car[9].customMobility coordinateSystemModule "\"\""
par VehicularSensingNetwork.car[9].customMobility displayStringTextFormat "\"p: %p\\nv: %v\""
attr mutable ""
par VehicularSensingNetwork.car[9].customMobility updateDisplayString true
par VehicularSensingNetwork.car[9].customMobility constraintAreaMinX 0m
attr unit m
par VehicularSensingNetwork.car[9].customMobility constraintAreaMinY 0m
attr unit m
par VehicularSensingNetwork.car[9].customMobility constraintAreaMinZ 0m
attr unit m
par VehicularSensingNetwork.car[9].customMobility constraintAreaMaxX 500m
attr unit m
par VehicularSensingNetwork.car[9].customMobility constraintAreaMaxY 500m
attr unit m
par VehicularSensingNetwork.car[9].customMobility constraintAreaMaxZ 0m
attr unit m
par VehicularSensingNetwork.car[9].customMobility updateInterval 0.1s
attr unit s
par VehicularSensingNetwork.car[9].customMobility faceForward true
par VehicularSensingNetwork.car[9].customMobility initialX 366.572m
attr unit m
par VehicularSensingNetwork.car[9].customMobility initialY 420.737m
attr unit m
par VehicularSensingNetwork.car[9].customMobility initialZ 0m
attr unit m
par VehicularSensingNetwork.car[9].customMobility initFromDisplayString true
par VehicularSensingNetwork.car[9].customMobility speed "uniform(parent.minSpeed, parent.maxSpeed)"
attr unit mps
par VehicularSensingNetwork.car[9].customMobility waitTime 0s
attr unit s
par VehicularSensingNetwork.car[9].customMobility totalCars 20
par VehicularSensingNetwork.car[9].customMobility minInitDistance 10m
attr unit m
par VehicularSensingNetwork.car[9].customSensing typename "\"pecsn_project_tess.SensingModule\""
par VehicularSensingNetwork.car[9].customSensing carID 9
par VehicularSensingNetwork.car[9].customSensing totalCars 20
par VehicularSensingNetwork.car[9].customSensing communicationRange 200m
attr unit m
par VehicularSensingNetwork.car[9].customSensing alphaValue 0.01
par VehicularSensingNetwork.car[9].customSensing sensingInterval 1s
attr unit s
par VehicularSensingNetwork.car[9].customSensing outputFile "\"vehicles_sensed\""
par VehicularSensingNetwork.car[9] typename "\"pecsn_project_tess.Car\""
par VehicularSensingNetwork.car[9] carIndex 9
par VehicularSensingNetwork.car[9] allCars 20
par VehicularSensingNetwork.car[9] minCoordValue 0m
attr unit m
par VehicularSensingNetwork.car[9] maxCoordValue 500m
attr unit m
par VehicularSensingNetwork.car[9] minSpeed 5mps
attr unit mps
par VehicularSensingNetwork.car[9] maxSpeed 20mps
attr unit mps
par VehicularSensingNetwork.car[10].customMobility typename "\"pecsn_project_tess.MobilityModule\""
par VehicularSensingNetwork.car[10].customMobility subjectModule "\"^\""
par VehicularSensingNetwork.car[10].customMobility coordinateSystemModule "\"\""
par VehicularSensingNetwork.car[10].customMobility displayStringTextFormat "\"p: %p\\nv: %v\""
attr mutable ""
par VehicularSensingNetwork.car[10].customMobility updateDisplayString true
par VehicularSensingNetwork.car[10].customMobility constraintAreaMinX 0m
attr unit m
par VehicularSensingNetwork.car[10].customMobility constraintAreaMinY 0m
attr unit m
par VehicularSensingNetwork.car[10].customMobility constraintAreaMinZ 0m
attr unit m
par VehicularSensingNetwork.car[10].customMobility constraintAreaMaxX 500m
attr unit m
par VehicularSensingNetwork.car[10].customMobility constraintAreaMaxY 500m
attr unit m
par VehicularSensingNetwork.car[10].customMobility constraintAreaMaxZ 0m
attr unit m
par VehicularSensingNetwork.car[10].customMobility updateInterval 0.1s
attr unit s
par VehicularSensingNetwork.car[10].customMobility faceForward true
par VehicularSensingNetwork.car[10].customMobility initialX 120.993m
attr unit m
par VehicularSensingNetwork.car[10].customMobility initialY 65.2993m
attr unit m
par VehicularSensingNetwork.car[10].customMobility initialZ 0m
attr unit m
par VehicularSensingNetwork.car[10].customMobility initFromDisplayString true
par VehicularSensingNetwork.car[10].customMobility speed "uniform(parent.minSpeed, parent.maxSpeed)"
attr unit mps
par VehicularSensingNetwork.car[10].customMobility waitTime 0s
attr unit s
par VehicularSensingNetwork.car[10].customMobility totalCars 20
par VehicularSensingNetwork.car[10].customMobility minInitDistance 10m
attr unit m
par VehicularSensingNetwork.car[10].customSensing typename "\"pecsn_project_tess.SensingModule\""
par VehicularSensingNetwork.car[10].customSensing carID 10
par VehicularSensingNetwork.car[10].customSensing totalCars 20
par VehicularSensingNetwork.car[10].customSensing communicationRange 200m
attr unit m
par VehicularSensingNetwork.car[10].customSensing alphaValue 0.01
par VehicularSensingNetwork.car[10].customSensing sensingInterval 1s
attr unit s
par VehicularSensingNetwork.car[10].customSensing outputFile "\"vehicles_sensed\""
par VehicularSensingNetwork.car[10] typename "\"pecsn_project_tess.Car\""
par VehicularSensingNetwork.car[10] carIndex 10
par VehicularSensingNetwork.car[10] allCars 20
par VehicularSensingNetwork.car[10] minCoordValue 0m
attr unit m
par VehicularSensingNetwork.car[10] maxCoordValue 500m
attr unit m
par VehicularSensingNetwork.car[10] minSpeed 5mps
attr unit mps
par VehicularSensingNetwork.car[10] maxSpeed 20mps
attr unit mps
par VehicularSensingNetwork.car[11].customMobility typename "\"pecsn_project_tess.MobilityModule\""
par VehicularSensingNetwork.car[11].customMobility subjectModule "\"^\""
par VehicularSensingNetwork.car[11].customMobility coordinateSystemModule "\"\""
par VehicularSensingNetwork.car[11].customMobility displayStringTextFormat "\"p: %p\\nv: %v\""
attr mutable ""
par VehicularSensingNetwork.car[11].customMobility updateDisplayString true
par VehicularSensingNetwork.car[11].customMobility constraintAreaMinX 0m
attr unit m
par VehicularSensingNetwork.car[11].customMobility constraintAreaMinY 0m
attr unit m
par VehicularSensingNetwork.car[11].customMobility constraintAreaMinZ 0m
attr unit m
par VehicularSensingNetwork.car[11].customMobility constraintAreaMaxX 500m
attr unit m
par VehicularSensingNetwork.car[11].customMobility constraintAreaMaxY 500m
attr unit m
par VehicularSensingNetwork.car[11].customMobility constraintAreaMaxZ 0m
attr unit m
par VehicularSensingNetwork.car[11].customMobility updateInterval 0.1s
attr unit s
par VehicularSensingNetwork.car[11].customMobility faceForward true
par VehicularSensingNetwork.car[11].customMobility initialX 360.154m
attr unit m
par VehicularSensingNetwork.car[11].customMobility initialY 86.6738m
attr unit m
par VehicularSensingNetwork.car[11].customMobility initialZ 0m
attr unit m
par VehicularSensingNetwork.car[11].customMobility initFromDisplayString true
par VehicularSensingNetwork.car[11].customMobility speed "uniform(parent.minSpeed, parent.maxSpeed)"
attr unit mps
par VehicularSensingNetwork.car[11].customMobility waitTime 0s
attr unit s
par VehicularSensingNetwork.car[11].customMobility totalCars 20
par VehicularSensingNetwork.car[11].customMobility minInitDistance 10m
attr unit m
par VehicularSensingNetwork.car[11].customSensing typename "\"pecsn_project_tess.SensingModule\""
par VehicularSensingNetwork.car[11].customSensing carID 11
par VehicularSensingNetwork.car[11].customSensing totalCars 20
par VehicularSensingNetwork.car[11].customSensing communicationRange 200m
attr unit m
par VehicularSensingNetwork.car[11].customSensing alphaValue 0.01
par VehicularSensingNetwork.car[11].customSensing sensingInterval 1s
attr unit s
par VehicularSensingNetwork.car[11].customSensing outputFile "\"vehicles_sensed\""
par VehicularSensingNetwork.car[11] typename "\"pecsn_project_tess.Car\""
par VehicularSensingNetwork.car[11] carIndex 11
par VehicularSensingNetwork.car[11] allCars 20
par VehicularSensingNetwork.car[11] minCoordValue 0m
attr unit m
par VehicularSensingNetwork.car[11] maxCoordValue 500m
attr unit m
par VehicularSensingNetwork.car[11] minSpeed 5mps
attr unit mps
par VehicularSensingNetwork.car[11] maxSpeed 20mps
attr unit mps
par VehicularSensingNetwork.car[12].customMobility typename "\"pecsn_project_tess.MobilityModule\""
par VehicularSensingNetwork.car[12].customMobility subjectModule "\"^\""
par VehicularSensingNetwork.car[12].customMobility coordinateSystemModule "\"\""
par VehicularSensingNetwork.car[12].customMobility displayStringTextFormat "\"p: %p\\nv: %v\""
attr mutable ""
par VehicularSensingNetwork.car[12].customMobility updateDisplayString true
par VehicularSensingNetwork.car[12].customMobility constraintAreaMinX 0m
attr unit m
par VehicularSensingNetwork.car[12].customMobility constraintAreaMinY 0m
attr unit m
par VehicularSensingNetwork.car[12].customMobility constraintAreaMinZ 0m
attr unit m
par VehicularSensingNetwork.car[12].customMobility constraintAreaMaxX 500m
attr unit m
par VehicularSensingNetwork.car[12].customMobility constraintAreaMaxY 500m
attr unit m
par VehicularSensingNetwork.car[12].customMobility constraintAreaMaxZ 0m
attr unit m
par VehicularSensingNetwork.car[12].customMobility updateInterval 0.1s
attr unit s
par VehicularSensingNetwork.car[12].customMobility faceForward true
par VehicularSensingNetwork.car[12].customMobility initialX 29.1887m
attr unit m
par VehicularSensingNetwork.car[12].customMobility initialY 176.405m
attr unit m
par VehicularSensingNetwork.car[12].customMobility initialZ 0m
attr unit m
par VehicularSensingNetwork.car[12].customMobility initFromDisplayString true
par VehicularSensingNetwork.car[12].customMobility speed "uniform(parent.minSpeed, parent.maxSpeed)"
attr unit mps
par VehicularSensingNetwork.car[12].customMobility waitTime 0s
attr unit s
par VehicularSensingNetwork.car[12].customMobility totalCars 20
par VehicularSensingNetwork.car[12].customMobility minInitDistance 10m
attr unit m
par VehicularSensingNetwork.car[12].customSensing typename "\"pecsn_project_tess.SensingModule\""
par VehicularSensingNetwork.car[12].customSensing carID 12
par VehicularSensingNetwork.car[12].customSensing totalCars 20
par VehicularSensingNetwork.car[12].customSensing communicationRange 200m
attr unit m
par VehicularSensingNetwork.car[12].customSensing alphaValue 0.01
par VehicularSensingNetwork.car[12].customSensing sensingInterval 1s
attr unit s
par VehicularSensingNetwork.car[12].customSensing outputFile "\"vehicles_sensed\""
par VehicularSensingNetwork.car[12] typename "\"pecsn_project_tess.Car\""
par VehicularSensingNetwork.car[12] carIndex 12
par VehicularSensingNetwork.car[12] allCars 20
par VehicularSensingNetwork.car[12] minCoordValue 0m
attr unit m
par VehicularSensingNetwork.car[12] maxCoordValue 500m
attr unit m
par VehicularSensingNetwork.car[12] minSpeed 5mps
attr unit mps
par VehicularSensingNetwork.car[12] maxSpeed 20mps
attr unit mps
par VehicularSensingNetwork.car[13].customMobility typename "\"pecsn_project_tess.MobilityModule\""
par VehicularSensingNetwork.car[13].customMobility subjectModule "\"^\""
par VehicularSensingNetwork.car[13].customMobility coordinateSystemModule "\"\""
par VehicularSensingNetwork.car[13].customMobility displayStringTextFormat "\"p: %p\\nv: %v\""
attr mutable ""
par VehicularSensingNetwork.car[13].customMobility updateDisplayString true
par VehicularSensingNetwork.car[13].customMobility constraintAreaMinX 0m
attr unit m
par VehicularSensingNetwork.car[13].customMobility constraintAreaMinY 0m
attr unit m
par VehicularSensingNetwork.car[13].customMobility constraintAreaMinZ 0m
attr unit m
par VehicularSensingNetwork.car[13].customMobility constraintAreaMaxX 500m
attr unit m
par VehicularSensingNetwork.car[13].customMobility constraintAreaMaxY 500m
attr unit m
par VehicularSensingNetwork.car[13].customMobility constraintAreaMaxZ 0m
attr unit m
par VehicularSensingNetwork.car[13].customMobility updateInterval 0.1s
attr unit s
par VehicularSensingNetwork.car[13].customMobility faceForward true
par VehicularSensingNetwork.car[13].customMobility initialX 204.834m
attr unit m
par VehicularSensingNetwork.car[13].customMobility initialY 250.549m
attr unit m
par VehicularSensingNetwork.car[13].customMobility initialZ 0m
attr unit m
par VehicularSensingNetwork.car[13].customMobility initFromDisplayString true
par VehicularSensingNetwork.car[13].customMobility speed "uniform(parent.minSpeed, parent.maxSpeed)"
attr unit mps
par VehicularSensingNetwork.car[13].customMobility waitTime 0s
attr unit s
par VehicularSensingNetwork.car[13].customMobility totalCars 20
par VehicularSensingNetwork.car[13].customMobility minInitDistance 10m
attr unit m
par VehicularSensingNetwork.car[13].customSensing typename "\"pecsn_project_tess.SensingModule\""
par VehicularSensingNetwork.car[13].customSensing carID 13
par VehicularSensingNetwork.car[13].customSensing totalCars 20
par VehicularSensingNetwork.car[13].customSensing communicationRange 200m
attr unit m
par VehicularSensingNetwork.car[13].customSensing alphaValue 0.01
par VehicularSensingNetwork.car[13].customSensing sensingInterval 1s
attr unit s
par VehicularSensingNetwork.car[13].customSensing outputFile "\"vehicles_sensed\""
par VehicularSensingNetwork.car[13] typename "\"pecsn_project_tess.Car\""
par VehicularSensingNetwork.car[13] carIndex 13
par VehicularSensingNetwork.car[13] allCars 20
par VehicularSensingNetwork.car[13] minCoordValue 0m
attr unit m
par VehicularSensingNetwork.car[13] maxCoordValue 500m
attr unit m
par VehicularSensingNetwork.car[13] minSpeed 5mps
attr unit mps
par VehicularSensingNetwork.car[13] maxSpeed 20mps
attr unit mps
par VehicularSensingNetwork.car[14].customMobility typename "\"pecsn_project_tess.MobilityModule\""
par VehicularSensingNetwork.car[14].customMobility subjectModule "\"^\""
par VehicularSensingNetwork.car[14].customMobility coordinateSystemModule "\"\""
par VehicularSensingNetwork.car[14].customMobility displayStringTextFormat "\"p: %p\\nv: %v\""
attr mutable ""
par VehicularSensingNetwork.car[14].customMobility updateDisplayString true
par VehicularSensingNetwork.car[14].customMobility constraintAreaMinX 0m
attr unit m
par VehicularSensingNetwork.car[14].customMobility constraintAreaMinY 0m
attr unit m
par VehicularSensingNetwork.car[14].customMobility constraintAreaMinZ 0m
attr unit m
par VehicularSensingNetwork.car[14].customMobility constraintAreaMaxX 500m
attr unit m
par VehicularSensingNetwork.car[14].customMobility constraintAreaMaxY 500m
attr unit m
par VehicularSensingNetwork.car[14].customMobility constraintAreaMaxZ 0m
attr unit m
par VehicularSensingNetwork.car[14].customMobility updateInterval 0.1s
attr unit s
par VehicularSensingNetwork.car[14].customMobility faceForward true
par VehicularSensingNetwork.car[14].customMobility initialX 305.336m
attr unit m
par VehicularSensingNetwork.car[14].customMobility initialY 74.8845m
attr unit m
par VehicularSensingNetwork.car[14].customMobility initialZ 0m
attr unit m
par VehicularSensingNetwork.car[14].customMobility initFromDisplayString true
par VehicularSensingNetwork.car[14].customMobility speed "uniform(parent.minSpeed, parent.maxSpeed)"
attr unit mps
par VehicularSensingNetwork.car[14].customMobility waitTime 0s
attr unit s
par VehicularSensingNetwork.car[14].customMobility totalCars 20
par VehicularSensingNetwork.car[14].customMobility minInitDistance 10m
attr unit m
par VehicularSensingNetwork.car[14].customSensing typename "\"pecsn_project_tess.SensingModule\""
par VehicularSensingNetwork.car[14].customSensing carID 14
par VehicularSensingNetwork.car[14].customSensing totalCars 20
par VehicularSensingNetwork.car[14].customSensing communicationRange 200m
attr unit m
par VehicularSensingNetwork.car[14].customSensing alphaValue 0.01
par VehicularSensingNetwork.car[14].customSensing sensingInterval 1s
attr unit s
par VehicularSensingNetwork.car[14].customSensing outputFile "\"vehicles_sensed\""
par VehicularSensingNetwork.car[14] typename "\"pecsn_project_tess.Car\""
par VehicularSensingNetwork.car[14] carIndex 14
par VehicularSensingNetwork.car[14] allCars 20
par VehicularSensingNetwork.car[14] minCoordValue 0m
attr unit m
par VehicularSensingNetwork.car[14] maxCoordValue 500m
attr unit m
par VehicularSensingNetwork.car[14] minSpeed 5mps
attr unit mps
par VehicularSensingNetwork.car[14] maxSpeed 20mps
attr unit mps
par VehicularSensingNetwork.car[15].customMobility typename "\"pecsn_project_tess.MobilityModule\""
par VehicularSensingNetwork.car[15].customMobility subjectModule "\"^\""
par VehicularSensingNetwork.car[15].customMobility coordinateSystemModule "\"\""
par VehicularSensingNetwork.car[15].customMobility displayStringTextFormat "\"p: %p\\nv: %v\""
attr mutable ""
par VehicularSensingNetwork.car[15].customMobility updateDisplayString true
par VehicularSensingNetwork.car[15].customMobility constraintAreaMinX 0m
attr unit m
par VehicularSensingNetwork.car[15].customMobility constraintAreaMinY 0m
attr unit m
par VehicularSensingNetwork.car[15].customMobility constraintAreaMinZ 0m
attr unit m
par VehicularSensingNetwork.car[15].customMobility constraintAreaMaxX 500m
attr unit m
par VehicularSensingNetwork.car[15].customMobility constraintAreaMaxY 500m
attr unit m
par VehicularSensingNetwork.car[15].customMobility constraintAreaMaxZ 0m
attr unit m
par VehicularSensingNetwork.car[15].customMobility updateInterval 0.1s
attr unit s
par VehicularSensingNetwork.car[15].customMobility faceForward true
par VehicularSensingNetwork.car[15].customMobility initialX 127.957m
attr unit m
par VehicularSensingNetwork.car[15].customMobility initialY 12.5508m
attr unit m
par VehicularSensingNetwork.car[15].customMobility initialZ 0m
attr unit m
par VehicularSensingNetwork.car[15].customMobility initFromDisplayString true
par VehicularSensingNetwork.car[15].customMobility speed "uniform(parent.minSpeed, parent.maxSpeed)"
attr unit mps
par VehicularSensingNetwork.car[15].customMobility waitTime 0s
attr unit s
par VehicularSensingNetwork.car[15].customMobility totalCars 20
par VehicularSensingNetwork.car[15].customMobility minInitDistance 10m
attr unit m
par VehicularSensingNetwork.car[15].customSensing typename "\"pecsn_project_tess.SensingModule\""
par VehicularSensingNetwork.car[15].customSensing carID 15
par VehicularSensingNetwork.car[15].customSensing totalCars 20
par VehicularSensingNetwork.car[15].customSensing communicationRange 200m
attr unit m
par VehicularSensingNetwork.car[15].customSensing alphaValue 0.01
par VehicularSensingNetwork.car[15].customSensing sensingInterval 1s
attr unit s
par VehicularSensingNetwork.car[15].customSensing outputFile "\"vehicles_sensed\""
par VehicularSensingNetwork.car[15] typename "\"pecsn_project_tess.Car\""
par VehicularSensingNetwork.car[15] carIndex 15
par VehicularSensingNetwork.car[15] allCars 20
par VehicularSensingNetwork.car[15] minCoordValue 0m
attr unit m
par VehicularSensingNetwork.car[15] maxCoordValue 500m
attr unit m
par VehicularSensingNetwork.car[15] minSpeed 5mps
attr unit mps
par VehicularSensingNetwork.car[15] maxSpeed 20mps
attr unit mps
par VehicularSensingNetwork.car[16].customMobility typename "\"pecsn_project_tess.MobilityModule\""
par VehicularSensingNetwork.car[16].customMobility subjectModule "\"^\""
par VehicularSensingNetwork.car[16].customMobility coordinateSystemModule "\"\""
par VehicularSensingNetwork.car[16].customMobility displayStringTextFormat "\"p: %p\\nv: %v\""
attr mutable ""
par VehicularSensingNetwork.car[16].customMobility updateDisplayString true
par VehicularSensingNetwork.car[16].customMobility constraintAreaMinX 0m
attr unit m
par VehicularSensingNetwork.car[16].customMobility constraintAreaMinY 0m
attr unit m
par VehicularSensingNetwork.car[16].customMobility constraintAreaMinZ 0m
attr unit m
par VehicularSensingNetwork.car[16].customMobility constraintAreaMaxX 500m
attr unit m
par VehicularSensingNetwork.car[16].customMobility constraintAreaMaxY 500m
attr unit m
par VehicularSensingNetwork.car[16].customMobility constraintAreaMaxZ 0m
attr unit m
par VehicularSensingNetwork.car[16].customMobility updateInterval 0.1s
attr unit s
par VehicularSensingNetwork.car[16].customMobility faceForward true
par VehicularSensingNetwork.car[16].customMobility initialX 142.836m
attr unit m
par VehicularSensingNetwork.car[16].customMobility initialY 34.3246m
attr unit m
par VehicularSensingNetwork.car[16].customMobility initialZ 0m
attr unit m
par VehicularSensingNetwork.car[16].customMobility initFromDisplayString true
par VehicularSensingNetwork.car[16].customMobility speed "uniform(parent.minSpeed, parent.maxSpeed)"
attr unit mps
par VehicularSensingNetwork.car[16].customMobility waitTime 0s
attr unit s
par VehicularSensingNetwork.car[16].customMobility totalCars 20
par VehicularSensingNetwork.car[16].customMobility minInitDistance 10m
attr unit m
par VehicularSensingNetwork.car[16].customSensing typename "\"pecsn_project_tess.SensingModule\""
par VehicularSensingNetwork.car[16].customSensing carID 16
par VehicularSensingNetwork.car[16].customSensing totalCars 20
par VehicularSensingNetwork.car[16].customSensing communicationRange 200m
attr unit m
par VehicularSensingNetwork.car[16].customSensing alphaValue 0.01
par VehicularSensingNetwork.car[16].customSensing sensingInterval 1s
attr unit s
par VehicularSensingNetwork.car[16].customSensing outputFile "\"vehicles_sensed\""
par VehicularSensingNetwork.car[16] typename "\"pecsn_project_tess.Car\""
par VehicularSensingNetwork.car[16] carIndex 16
par VehicularSensingNetwork.car[16] allCars 20
par VehicularSensingNetwork.car[16] minCoordValue 0m
attr unit m
par VehicularSensingNetwork.car[16] maxCoordValue 500m
attr unit m
par VehicularSensingNetwork.car[16] minSpeed 5mps
attr unit mps
par VehicularSensingNetwork.car[16] maxSpeed 20mps
attr unit mps
par VehicularSensingNetwork.car[17].customMobility typename "\"pecsn_project_tess.MobilityModule\""
par VehicularSensingNetwork.car[17].customMobility subjectModule "\"^\""
par VehicularSensingNetwork.car[17].customMobility coordinateSystemModule "\"\""
par VehicularSensingNetwork.car[17].customMobility displayStringTextFormat "\"p: %p\\nv: %v\""
attr mutable ""
par VehicularSensingNetwork.car[17].customMobility updateDisplayString true
par VehicularSensingNetwork.car[17].customMobility constraintAreaMinX 0m
attr unit m
par VehicularSensingNetwork.car[17].customMobility constraintAreaMinY 0m
attr unit m
par VehicularSensingNetwork.car[17].customMobility constraintAreaMinZ 0m
attr unit m
par VehicularSensingNetwork.car[17].customMobility constraintAreaMaxX 500m
attr unit m
par VehicularSensingNetwork.car[17].customMobility constraintAreaMaxY 500m
attr unit m
par VehicularSensingNetwork.car[17].customMobility constraintAreaMaxZ 0m
attr unit m
par VehicularSensingNetwork.car[17].customMobility updateInterval 0.1s
attr unit s
par VehicularSensingNetwork.car[17].customMobility faceForward true
par VehicularSensingNetwork.car[17].customMobility initialX 342.232m
attr unit m
par VehicularSensingNetwork.car[17].customMobility initialY 497.611m
attr unit m
par VehicularSensingNetwork.car[17].customMobility initialZ 0m
attr unit m
par VehicularSensingNetwork.car[17].customMobility initFromDisplayString true
par VehicularSensingNetwork.car[17].customMobility speed "uniform(parent.minSpeed, parent.maxSpeed)"
attr unit mps
par VehicularSensingNetwork.car[17].customMobility waitTime 0s
attr unit s
par VehicularSensingNetwork.car[17].customMobility totalCars 20
par VehicularSensingNetwork.car[17].customMobility minInitDistance 10m
attr unit m
par VehicularSensingNetwork.car[17].customSensing typename "\"pecsn_project_tess.SensingModule\""
par VehicularSensingNetwork.car[17].customSensing carID 17
par VehicularSensingNetwork.car[17].customSensing totalCars 20
par VehicularSensingNetwork.car[17].customSensing communicationRange 200m
attr unit m
par VehicularSensingNetwork.car[17].customSensing alphaValue 0.01
par VehicularSensingNetwork.car[17].customSensing sensingInterval 1s
attr unit s
par VehicularSensingNetwork.car[17].customSensing outputFile "\"vehicles_sensed\""
par VehicularSensingNetwork.car[17] typename "\"pecsn_project_tess.Car\""
par VehicularSensingNetwork.car[17] carIndex 17
par VehicularSensingNetwork.car[17] allCars 20
par VehicularSensingNetwork.car[17] minCoordValue 0m
attr unit m
par VehicularSensingNetwork.car[17] maxCoordValue 500m
attr unit m
par VehicularSensingNetwork.car[17] minSpeed 5mps
attr unit mps
par VehicularSensingNetwork.car[17] maxSpeed 20mps
attr unit mps
par VehicularSensingNetwork.car[18].customMobility typename "\"pecsn_project_tess.MobilityModule\""
par VehicularSensingNetwork.car[18].customMobility subjectModule "\"^\""
par VehicularSensingNetwork.car[18].customMobility coordinateSystemModule "\"\""
par VehicularSensingNetwork.car[18].customMobility displayStringTextFormat "\"p: %p\\nv: %v\""
attr mutable ""
par VehicularSensingNetwork.car[18].customMobility updateDisplayString true
par VehicularSensingNetwork.car[18].customMobility constraintAreaMinX 0m
attr unit m
par VehicularSensingNetwork.car[18].customMobility constraintAreaMinY 0m
attr unit m
par VehicularSensingNetwork.car[18].customMobility constraintAreaMinZ 0m
attr unit m
par VehicularSensingNetwork.car[18].customMobility constraintAreaMaxX 500m
attr unit m
par VehicularSensingNetwork.car[18].customMobility constraintAreaMaxY 500m
attr unit m
par VehicularSensingNetwork.car[18].customMobility constraintAreaMaxZ 0m
attr unit m
par VehicularSensingNetwork.car[18].customMobility updateInterval 0.1s
attr unit s
par VehicularSensingNetwork.car[18].customMobility faceForward true
par VehicularSensingNetwork.car[18].customMobility initialX 420.46m
attr unit m
par VehicularSensingNetwork.car[18].customMobility initialY 157.107m
attr unit m
par VehicularSensingNetwork.car[18].customMobility initialZ 0m
attr unit m
par VehicularSensingNetwork.car[18].customMobility initFromDisplayString true
par VehicularSensingNetwork.car[18].customMobility speed "uniform(parent.minSpeed, parent.maxSpeed)"
attr unit mps
par VehicularSensingNetwork.car[18].customMobility waitTime 0s
attr unit s
par VehicularSensingNetwork.car[18].customMobility totalCars 20
par VehicularSensingNetwork.car[18].customMobility minInitDistance 10m
attr unit m
par VehicularSensingNetwork.car[18].customSensing typename "\"pecsn_project_tess.SensingModule\""
par VehicularSensingNetwork.car[18].customSensing carID 18
par VehicularSensingNetwork.car[18].customSensing totalCars 20
par VehicularSensingNetwork.car[18].customSensing communicationRange 200m
attr unit m
par VehicularSensingNetwork.car[18].customSensing alphaValue 0.01
par VehicularSensingNetwork.car[18].customSensing sensingInterval 1s
attr unit s
par VehicularSensingNetwork.car[18].customSensing outputFile "\"vehicles_sensed\""
par VehicularSensingNetwork.car[18] typename "\"pecsn_project_tess.Car\""
par VehicularSensingNetwork.car[18] carIndex 18
par VehicularSensingNetwork.car[18] allCars 20
par VehicularSensingNetwork.car[18] minCoordValue 0m
attr unit m
par VehicularSensingNetwork.car[18] maxCoordValue 500m
attr unit m
par VehicularSensingNetwork.car[18] minSpeed 5mps
attr unit mps
par VehicularSensingNetwork.car[18] maxSpeed 20mps
attr unit mps
par VehicularSensingNetwork.car[19].customMobility typename "\"pecsn_project_tess.MobilityModule\""
par VehicularSensingNetwork.car[19].customMobility subjectModule "\"^\""
par VehicularSensingNetwork.car[19].customMobility coordinateSystemModule "\"\""
par VehicularSensingNetwork.car[19].customMobility displayStringTextFormat "\"p: %p\\nv: %v\""
attr mutable ""
par VehicularSensingNetwork.car[19].customMobility updateDisplayString true
par VehicularSensingNetwork.car[19].customMobility constraintAreaMinX 0m
attr unit m
par VehicularSensingNetwork.car[19].customMobility constraintAreaMinY 0m
attr unit m
par VehicularSensingNetwork.car[19].customMobility constraintAreaMinZ 0m
attr unit m
par VehicularSensingNetwork.car[19].customMobility constraintAreaMaxX 500m
attr unit m
par VehicularSensingNetwork.car[19].customMobility constraintAreaMaxY 500m
attr unit m
par VehicularSensingNetwork.car[19].customMobility constraintAreaMaxZ 0m
attr unit m
par VehicularSensingNetwork.car[19].customMobility updateInterval 0.1s
attr unit s
par VehicularSensingNetwork.car[19].customMobility faceForward true
par VehicularSensingNetwork.car[19].customMobility initialX 404.577m
attr unit m
par VehicularSensingNetwork.car[19].customMobility initialY 324.681m
attr unit m
par VehicularSensingNetwork.car[19].customMobility initialZ 0m
attr unit m
par VehicularSensingNetwork.car[19].customMobility initFromDisplayString true
par VehicularSensingNetwork.car[19].customMobility speed "uniform(parent.minSpeed, parent.maxSpeed)"
attr unit mps
par VehicularSensingNetwork.car[19].customMobility waitTime 0s
attr unit s
par VehicularSensingNetwork.car[19].customMobility totalCars 20
par VehicularSensingNetwork.car[19].customMobility minInitDistance 10m
attr unit m
par VehicularSensingNetwork.car[19].customSensing typename "\"pecsn_project_tess.SensingModule\""
par VehicularSensingNetwork.car[19].customSensing carID 19
par VehicularSensingNetwork.car[19].customSensing totalCars 20
par VehicularSensingNetwork.car[19].customSensing communicationRange 200m
attr unit m
par VehicularSensingNetwork.car[19].customSensing alphaValue 0.01
par VehicularSensingNetwork.car[19].customSensing sensingInterval 1s
attr unit s
par VehicularSensingNetwork.car[19].customSensing outputFile "\"vehicles_sensed\""
par VehicularSensingNetwork.car[19] typename "\"pecsn_project_tess.Car\""
par VehicularSensingNetwork.car[19] carIndex 19
par VehicularSensingNetwork.car[19] allCars 20
par VehicularSensingNetwork.car[19] minCoordValue 0m
attr unit m
par VehicularSensingNetwork.car[19] maxCoordValue 500m
attr unit m
par VehicularSensingNetwork.car[19] minSpeed 5mps
attr unit mps
par VehicularSensingNetwork.car[19] maxSpeed 20mps
attr unit mps
par VehicularSensingNetwork.mobilityVisualizer.canvasVisualizer typename "\"inet.visualizer.canvas.mobility.MobilityCanvasVisualizer\""
par VehicularSensingNetwork.mobilityVisualizer.canvasVisualizer visualizationTargetModule "\"^.^\""
par VehicularSensingNetwork.mobilityVisualizer.canvasVisualizer visualizationSubjectModule "\"^.^\""
par VehicularSensingNetwork.mobilityVisualizer.canvasVisualizer tags "\"\""
par VehicularSensingNetwork.mobilityVisualizer.canvasVisualizer networkNodeVisualizerModule "\"^.networkNodeVisualizer\""
par VehicularSensingNetwork.mobilityVisualizer.canvasVisualizer displayMobility true
par VehicularSensingNetwork.mobilityVisualizer.canvasVisualizer animationSpeed 0
par VehicularSensingNetwork.mobilityVisualizer.canvasVisualizer moduleFilter "\"**.mobility\""
attr mutable ""
par VehicularSensingNetwork.mobilityVisualizer.canvasVisualizer displayPositions false
par VehicularSensingNetwork.mobilityVisualizer.canvasVisualizer positionCircleRadius 4
par VehicularSensingNetwork.mobilityVisualizer.canvasVisualizer positionCircleLineWidth 1
par VehicularSensingNetwork.mobilityVisualizer.canvasVisualizer positionCircleLineColor "\"dark\""
par VehicularSensingNetwork.mobilityVisualizer.canvasVisualizer positionCircleFillColor "\"dark\""
par VehicularSensingNetwork.mobilityVisualizer.canvasVisualizer displayOrientations false
par VehicularSensingNetwork.mobilityVisualizer.canvasVisualizer orientationPieRadius 32
par VehicularSensingNetwork.mobilityVisualizer.canvasVisualizer orientationPieSize 0.2
par VehicularSensingNetwork.mobilityVisualizer.canvasVisualizer orientationPieOpacity 0.25
par VehicularSensingNetwork.mobilityVisualizer.canvasVisualizer orientationLineColor "\"black\""
par VehicularSensingNetwork.mobilityVisualizer.canvasVisualizer orientationLineStyle "\"solid\""
par VehicularSensingNetwork.mobilityVisualizer.canvasVisualizer orientationLineWidth 1
par VehicularSensingNetwork.mobilityVisualizer.canvasVisualizer orientationFillColor "\"blue\""
par VehicularSensingNetwork.mobilityVisualizer.canvasVisualizer displayVelocities false
par VehicularSensingNetwork.mobilityVisualizer.canvasVisualizer velocityArrowScale 1
par VehicularSensingNetwork.mobilityVisualizer.canvasVisualizer velocityLineColor "\"black\""
par VehicularSensingNetwork.mobilityVisualizer.canvasVisualizer velocityLineStyle "\"solid\""
par VehicularSensingNetwork.mobilityVisualizer.canvasVisualizer velocityLineWidth 1
par VehicularSensingNetwork.mobilityVisualizer.canvasVisualizer displayMovementTrails false
par VehicularSensingNetwork.mobilityVisualizer.canvasVisualizer movementTrailLineColor "\"dark\""
par VehicularSensingNetwork.mobilityVisualizer.canvasVisualizer movementTrailLineStyle "\"solid\""
par VehicularSensingNetwork.mobilityVisualizer.canvasVisualizer movementTrailLineWidth 1
par VehicularSensingNetwork.mobilityVisualizer.canvasVisualizer trailLength 100
par VehicularSensingNetwork.mobilityVisualizer.canvasVisualizer zIndex 0
par VehicularSensingNetwork.mobilityVisualizer typename "\"inet.visualizer.common.MobilityVisualizer\""
par VehicularSensingNetwork typename "\"pecsn_project_tess.simulations.VehicularSensingNetwork\""
par VehicularSensingNetwork numCars 20

